LTspice 24.1.10 for Windows
Circuit: C:\users\arendjan\My Documents\lib\cmp\ti431\TL431_test.net
Start Time: Fri Oct 31 13:22:40 2025
solver = Normal
Maximum thread count: 8
tnom = 27
temp = 27
method = modified trap
Direct Newton iteration for .op point succeeded.
.step 
Total elapsed time: 0.022 seconds.

Files loaded:
C:\users\arendjan\My Documents\lib\cmp\ti431\TL431_test.net
C:\users\arendjan\My Documents\lib\cmp\ti431\TL431.mod

